20
Saved by Chrom Class
C     1.41436300   0.22968000   0.00864100
C     0.79198000  -1.04473300   0.09405200
C    -0.60076200  -1.16171500   0.22839800
C    -1.42674200  -0.01095700   0.30678000
C    -0.81360200   1.26041500   0.18774500
H     1.40337200  -1.95494000   0.04273700
H    -1.05748700  -2.15926500   0.28363000
H    -1.43639500   2.16467800   0.20950300
C    -2.94274200  -0.15632200   0.36499100
C    -3.72954700  -0.18517900  -0.71660700
H    -3.34019000  -0.01213400  -1.72750600
H    -3.37783100  -0.40001300   1.34909200
H    -4.81042400  -0.35476400  -0.63580200
C     2.89571000   0.40572500  -0.13743900
H     3.22627500   1.45404200  -0.18882000
C     3.81605500  -0.57137400  -0.20220300
H     3.55464600  -1.63451900  -0.15166400
H     4.88304500  -0.34141700  -0.30414700
C     0.58149300   1.37837900   0.05628100
H     1.03774900   2.37481200  -0.02086100
